64
NON_ORTHO 8.7079864952 0.0 0.0 0.0 8.7079864952 0.0 0.0 0.08.7079864952 
Si      3.253534503554775      1.087005318641003      3.104635909017681
Si      3.273795569915518      3.283328062071610      1.103139810578424
Si      1.065430283042674      1.052121264893117      1.094698822012049
Si      1.004073056002284      3.260578412852777      3.447100015293608
C       8.596239515443182      8.629691984724335      8.225310234579243
C       8.606394123831121      2.204236652677502      2.521362358231114
C       2.222476651358577      0.075114392597040      2.219644675842995
C       2.134280680002012      2.329533337364217      0.209122326921933
Si      3.226597537585390      1.090877498767472      7.627561503524037
Si      3.152568534407039      3.251946494182808      5.335613755278652
Si      1.133243060904945      1.114297110545897      5.416860608320421
Si      1.110334054312510      3.259786262725074      7.642815182838650
C       0.008109342373448      8.613868270395397      4.363805030075954
C       8.256248712358991      1.886295232615146      7.121570841232860
C       2.225571710298841      0.026586623774090      6.547248799090332
C       1.980802417188180      2.551933822247664      4.429014138453132
Si      3.269529711341419      5.420814443040497      3.253728477191954
Si      3.184964597470941      7.490072219177141      0.966080778108295
Si      1.135220435349940      5.511094416812395      1.112323206370093
Si      1.110619328729826      7.580052885009105      3.321722795396457
C       8.074335150377046      4.370697775952391      0.006342041144102
C       8.683166271430512      6.578185979135468      2.141992935243139
C       2.363043683472863      4.761279609877801      2.342154441132383
C       2.300309505784729      6.519256698715370      8.643255133132426
Si      3.321295624706891      5.448118096257132      7.664408484664436
Si      3.244990770419560      7.639405210072536      5.446020054840998
Si      1.068263569365052      5.426007100244045      5.599805189226370
Si      1.068143698568487      7.635968132336192      7.615924391022850
C       8.206688505153560      4.824163913567945      4.588196524808180
C       0.157638523436428      6.886170884601258      6.012235240291974
C       2.049061174816212      4.565360674583554      6.352728437835399
C       2.175670362956356      6.671918389691584      4.651006814045075
Si      7.677885610791502      1.019154952666150      3.165183897333240
Si      7.630681057351270      3.259049587060910      1.070702752853441
Si      5.571388787651265      1.123061154575977      1.125848686235942
Si      5.491152424688781      3.230866549815651      3.221793799120256
C       4.388351559392007      0.155780151683565      0.006738909544481
C       4.315893814458415      2.240751340946412      2.155791022023467
C       6.235538017126773      8.299205860680283      1.814834196399469
C       7.018836027927304      1.779182112446590      0.108236456357334
Si      7.619070508408168      1.077020667418014      7.618025318875326
Si      7.643035474934362      3.356629053145260      5.423211500993148
Si      5.443785186118498      1.102842527556662      5.443391237633223
Si      5.394770708564633      3.268071033423404      7.642903928491793
C       4.216978678662596      0.202042391291761      3.986393435393978
C       4.415390686787050      1.995608487189323      6.714998017770126
C       6.532600590644304      0.008718280864477      6.517039450852580
C       6.589869374606927      2.936946236881366      5.300021021635558
Si      7.669393869370670      5.409691422037448      3.276427306929865
Si      7.570652793204276      7.611771175348037      1.035039132147801
Si      5.411508330043520      5.511713582518118      1.195355525184039
Si      5.446184314782377      7.619553738112630      3.264728996979136
C       4.035454484675098      4.408215512997473      0.510339565430886
C       4.326062125267248      6.646083975265719      2.349305958151266
C       7.339529944841226      3.602778290087585      2.415848364885025
C       6.183864622836037      6.441660107618506      7.857090415414042
Si      7.659650510380613      5.467381015572047      7.641171706003107
Si      7.620815032999609      7.653947439356653      5.386120600874315
Si      5.459771689479730      5.448268146708685      5.444086519411095
Si      5.466784456113704      7.652687619560562      7.656969245224394
C       4.373884715516334      4.272725138990772      4.676260924079064
C       4.976997019748868      6.439789150144807      6.682106492879930
C       6.285312684128186      4.603322375492932      6.375010914346170
C       6.603613933002155      6.540223692319930      4.350644308105427