216
NON_ORTHO 13.0619797427 0.0 0 0 13.0619797427 0 0.0 0.0 13.0619797427
Si 3.2654949357 1.0884983119 3.2654949357
Si 3.2654949357 3.2654949357 1.0884983119
Si 1.0884983119 1.0884983119 1.0884983119
Si 1.0884983119 3.2654949357 3.2654949357
C 0.0 0.0 0.0
C 0.0 2.1769966238 2.1769966238
C 2.1769966238 0.0 2.1769966238
C 2.1769966238 2.1769966238 0.0
Si 3.2654949357 1.0884983119 7.6194881833
Si 3.2654949357 3.2654949357 5.4424915595
Si 1.0884983119 1.0884983119 5.4424915595
Si 1.0884983119 3.2654949357 7.6194881833
C 0.0 0.0 4.3539932476
C 0.0 2.1769966238 6.5309898714
C 2.1769966238 0.0 6.5309898714
C 2.1769966238 2.1769966238 4.3539932476
Si 3.2654949357 1.0884983119 11.9734814309
Si 3.2654949357 3.2654949357 9.7964848071
Si 1.0884983119 1.0884983119 9.7964848071
Si 1.0884983119 3.2654949357 11.9734814309
C 0.0 0.0 8.7079864952
C 0.0 2.1769966238 10.884983119
C 2.1769966238 0.0 10.884983119
C 2.1769966238 2.1769966238 8.7079864952
Si 3.2654949357 5.4424915595 3.2654949357
Si 3.2654949357 7.6194881833 1.0884983119
Si 1.0884983119 5.4424915595 1.0884983119
Si 1.0884983119 7.6194881833 3.2654949357
C 0.0 4.3539932476 8.881784197e-16
C 0.0 6.5309898714 2.1769966238
C 2.1769966238 4.3539932476 2.1769966238
C 2.1769966238 6.5309898714 8.881784197e-16
Si 3.2654949357 5.4424915595 7.6194881833
Si 3.2654949357 7.6194881833 5.4424915595
Si 1.0884983119 5.4424915595 5.4424915595
Si 1.0884983119 7.6194881833 7.6194881833
C 0.0 4.3539932476 4.3539932476
C 0.0 6.5309898714 6.5309898714
C 2.1769966238 4.3539932476 6.5309898714
C 2.1769966238 6.5309898714 4.3539932476
Si 3.2654949357 5.4424915595 11.9734814309
Si 3.2654949357 7.6194881833 9.7964848071
Si 1.0884983119 5.4424915595 9.7964848071
Si 1.0884983119 7.6194881833 11.9734814309
C 0.0 4.3539932476 8.7079864952
C 0.0 6.5309898714 10.884983119
C 2.1769966238 4.3539932476 10.884983119
C 2.1769966238 6.5309898714 8.7079864952
Si 3.2654949357 9.7964848071 3.2654949357
Si 3.2654949357 11.9734814309 1.0884983119
Si 1.0884983119 9.7964848071 1.0884983119
Si 1.0884983119 11.9734814309 3.2654949357
C 0.0 8.7079864952 8.881784197e-16
C 0.0 10.884983119 2.1769966238
C 2.1769966238 8.7079864952 2.1769966238
C 2.1769966238 10.884983119 8.881784197e-16
Si 3.2654949357 9.7964848071 7.6194881833
Si 3.2654949357 11.9734814309 5.4424915595
Si 1.0884983119 9.7964848071 5.4424915595
Si 1.0884983119 11.9734814309 7.6194881833
C 0.0 8.7079864952 4.3539932476
C 0.0 10.884983119 6.5309898714
C 2.1769966238 8.7079864952 6.5309898714
C 2.1769966238 10.884983119 4.3539932476
Si 3.2654949357 9.7964848071 11.9734814309
Si 3.2654949357 11.9734814309 9.7964848071
Si 1.0884983119 9.7964848071 9.7964848071
Si 1.0884983119 11.9734814309 11.9734814309
C 0.0 8.7079864952 8.7079864952
C 0.0 10.884983119 10.884983119
C 2.1769966238 8.7079864952 10.884983119
C 2.1769966238 10.884983119 8.7079864952
Si 7.6194881833 1.0884983119 3.2654949357
Si 7.6194881833 3.2654949357 1.0884983119
Si 5.4424915595 1.0884983119 1.0884983119
Si 5.4424915595 3.2654949357 3.2654949357
C 4.3539932476 0.0 8.881784197e-16
C 4.3539932476 2.1769966238 2.1769966238
C 6.5309898714 0.0 2.1769966238
C 6.5309898714 2.1769966238 8.881784197e-16
Si 7.6194881833 1.0884983119 7.6194881833
Si 7.6194881833 3.2654949357 5.4424915595
Si 5.4424915595 1.0884983119 5.4424915595
Si 5.4424915595 3.2654949357 7.6194881833
C 4.3539932476 0.0 4.3539932476
C 4.3539932476 2.1769966238 6.5309898714
C 6.5309898714 0.0 6.5309898714
C 6.5309898714 2.1769966238 4.3539932476
Si 7.6194881833 1.0884983119 11.9734814309
Si 7.6194881833 3.2654949357 9.7964848071
Si 5.4424915595 1.0884983119 9.7964848071
Si 5.4424915595 3.2654949357 11.9734814309
C 4.3539932476 0.0 8.7079864952
C 4.3539932476 2.1769966238 10.884983119
C 6.5309898714 0.0 10.884983119
C 6.5309898714 2.1769966238 8.7079864952
Si 7.6194881833 5.4424915595 3.2654949357
Si 7.6194881833 7.6194881833 1.0884983119
Si 5.4424915595 5.4424915595 1.0884983119
Si 5.4424915595 7.6194881833 3.2654949357
C 4.3539932476 4.3539932476 8.881784197e-16
C 4.3539932476 6.5309898714 2.1769966238
C 6.5309898714 4.3539932476 2.1769966238
C 6.5309898714 6.5309898714 8.881784197e-16
Si 7.6194881833 5.4424915595 7.6194881833
Si 7.6194881833 7.6194881833 5.4424915595
Si 5.4424915595 5.4424915595 5.4424915595
Si 5.4424915595 7.6194881833 7.6194881833
C 4.3539932476 4.3539932476 4.3539932476
C 4.3539932476 6.5309898714 6.5309898714
C 6.5309898714 4.3539932476 6.5309898714
C 6.5309898714 6.5309898714 4.3539932476
Si 7.6194881833 5.4424915595 11.9734814309
Si 7.6194881833 7.6194881833 9.7964848071
Si 5.4424915595 5.4424915595 9.7964848071
Si 5.4424915595 7.6194881833 11.9734814309
C 4.3539932476 4.3539932476 8.7079864952
C 4.3539932476 6.5309898714 10.884983119
C 6.5309898714 4.3539932476 10.884983119
C 6.5309898714 6.5309898714 8.7079864952
Si 7.6194881833 9.7964848071 3.2654949357
Si 7.6194881833 11.9734814309 1.0884983119
Si 5.4424915595 9.7964848071 1.0884983119
Si 5.4424915595 11.9734814309 3.2654949357
C 4.3539932476 8.7079864952 8.881784197e-16
C 4.3539932476 10.884983119 2.1769966238
C 6.5309898714 8.7079864952 2.1769966238
C 6.5309898714 10.884983119 8.881784197e-16
Si 7.6194881833 9.7964848071 7.6194881833
Si 7.6194881833 11.9734814309 5.4424915595
Si 5.4424915595 9.7964848071 5.4424915595
Si 5.4424915595 11.9734814309 7.6194881833
C 4.3539932476 8.7079864952 4.3539932476
C 4.3539932476 10.884983119 6.5309898714
C 6.5309898714 8.7079864952 6.5309898714
C 6.5309898714 10.884983119 4.3539932476
Si 7.6194881833 9.7964848071 11.9734814309
Si 7.6194881833 11.9734814309 9.7964848071
Si 5.4424915595 9.7964848071 9.7964848071
Si 5.4424915595 11.9734814309 11.9734814309
C 4.3539932476 8.7079864952 8.7079864952
C 4.3539932476 10.884983119 10.884983119
C 6.5309898714 8.7079864952 10.884983119
C 6.5309898714 10.884983119 8.7079864952
Si 11.9734814309 1.0884983119 3.2654949357
Si 11.9734814309 3.2654949357 1.0884983119
Si 9.7964848071 1.0884983119 1.0884983119
Si 9.7964848071 3.2654949357 3.2654949357
C 8.7079864952 0.0 8.881784197e-16
C 8.7079864952 2.1769966238 2.1769966238
C 10.884983119 0.0 2.1769966238
C 10.884983119 2.1769966238 8.881784197e-16
Si 11.9734814309 1.0884983119 7.6194881833
Si 11.9734814309 3.2654949357 5.4424915595
Si 9.7964848071 1.0884983119 5.4424915595
Si 9.7964848071 3.2654949357 7.6194881833
C 8.7079864952 0.0 4.3539932476
C 8.7079864952 2.1769966238 6.5309898714
C 10.884983119 0.0 6.5309898714
C 10.884983119 2.1769966238 4.3539932476
Si 11.9734814309 1.0884983119 11.9734814309
Si 11.9734814309 3.2654949357 9.7964848071
Si 9.7964848071 1.0884983119 9.7964848071
Si 9.7964848071 3.2654949357 11.9734814309
C 8.7079864952 0.0 8.7079864952
C 8.7079864952 2.1769966238 10.884983119
C 10.884983119 0.0 10.884983119
C 10.884983119 2.1769966238 8.7079864952
Si 11.9734814309 5.4424915595 3.2654949357
Si 11.9734814309 7.6194881833 1.0884983119
Si 9.7964848071 5.4424915595 1.0884983119
Si 9.7964848071 7.6194881833 3.2654949357
C 8.7079864952 4.3539932476 8.881784197e-16
C 8.7079864952 6.5309898714 2.1769966238
C 10.884983119 4.3539932476 2.1769966238
C 10.884983119 6.5309898714 8.881784197e-16
Si 11.9734814309 5.4424915595 7.6194881833
Si 11.9734814309 7.6194881833 5.4424915595
Si 9.7964848071 5.4424915595 5.4424915595
Si 9.7964848071 7.6194881833 7.6194881833
C 8.7079864952 4.3539932476 4.3539932476
C 8.7079864952 6.5309898714 6.5309898714
C 10.884983119 4.3539932476 6.5309898714
C 10.884983119 6.5309898714 4.3539932476
Si 11.9734814309 5.4424915595 11.9734814309
Si 11.9734814309 7.6194881833 9.7964848071
Si 9.7964848071 5.4424915595 9.7964848071
Si 9.7964848071 7.6194881833 11.9734814309
C 8.7079864952 4.3539932476 8.7079864952
C 8.7079864952 6.5309898714 10.884983119
C 10.884983119 4.3539932476 10.884983119
C 10.884983119 6.5309898714 8.7079864952
Si 11.9734814309 9.7964848071 3.2654949357
Si 11.9734814309 11.9734814309 1.0884983119
Si 9.7964848071 9.7964848071 1.0884983119
Si 9.7964848071 11.9734814309 3.2654949357
C 8.7079864952 8.7079864952 1.7763568394e-15
C 8.7079864952 10.884983119 2.1769966238
C 10.884983119 8.7079864952 2.1769966238
C 10.884983119 10.884983119 1.7763568394e-15
Si 11.9734814309 9.7964848071 7.6194881833
Si 11.9734814309 11.9734814309 5.4424915595
Si 9.7964848071 9.7964848071 5.4424915595
Si 9.7964848071 11.9734814309 7.6194881833
C 8.7079864952 8.7079864952 4.3539932476
C 8.7079864952 10.884983119 6.5309898714
C 10.884983119 8.7079864952 6.5309898714
C 10.884983119 10.884983119 4.3539932476
Si 11.9734814309 9.7964848071 11.9734814309
Si 11.9734814309 11.9734814309 9.7964848071
Si 9.7964848071 9.7964848071 9.7964848071
Si 9.7964848071 11.9734814309 11.9734814309
C 8.7079864952 8.7079864952 8.7079864952
C 8.7079864952 10.884983119 10.884983119
C 10.884983119 8.7079864952 10.884983119
C 10.884983119 10.884983119 8.7079864952